# Generated from titan_205.rx, and thermodata120.rx
# on 4/16/2021. Kevin sent me (Nick Wogan) these data files on
# 2/10/2021 in an email. This is Kevin Zahnle's reaction mechanism
# designed for atmospheric chemistry.

units(length="cm", quantity = "molec", act_energy = "K")

ideal_gas(name = "zahnle",
          elements = "O H C N S Cl",
          species = """H H2 O OH H2O O2 C CO CO2 HCO
                       H2CO CH CH2 CH3 H2COH CH4 CH3O CH3OH C2 C2H
                       C2H2 C2H3 C2H4 C2H5 C2H6 C4H C4H2 C2H2OH CH2CO CH2CHO
                       CH3CHO CH3CO 1CH2 C2H4OH C2H3OH N N2 NO NH NH2
                       NH3 CN HCN HCNOH H2CN S S2 S3 S4 S8
                       S8L HS H2S SO SO2 HSO OCS CS CS2 HCS
                       O1D HCCO NCO HNCO NH2CO NNH N2H2 HO2 H2O2 O3
                       HNO N2O NO2 HNO2 HNO3 NO3 SO3 HSO3 H2SO4 CH3O2
                       HS4 C4H3 C4H4 Cl HCl Cl2 HOCl ClO OClO N2H4
                       N2H3 N2D HCCCN C3H4 CH2N2 C3H6 CH3CN CH2CN""",
          reactions = "all",
          initial_state = state(temperature = 300.0, pressure = OneAtm) )

#-------------------------------------------------------------------------------
#  Species data
#-------------------------------------------------------------------------------
species(name = "H",
        atoms = " H:1 ",
        thermo = (
            Shomate( [     0.0,  6000.0], [ 2.07860300e+01, 4.85000000e-10
                    , -1.58000000e-10, 1.53000000e-11, 3.20000000e-11
                    , 2.11800000e+02, 1.39870000e+02] )
                 ),
        note = "From the NIST database")

species(name = "H2",
        atoms = " H:2 ",
        thermo = (
            Shomate( [     0.0,  1000.0], [ 3.30661780e+01, -1.13634200e+01
                    , 1.14328160e+01, -2.77287400e+00, -1.58558000e-01
                    , -9.98079700e+00, 1.72708000e+02] ),
            Shomate( [  1000.0,  2500.0], [ 1.85630830e+01, 1.22573570e+01
                    , -2.85978600e+00, 2.68238000e-01, 1.97799000e+00
                    , -1.14743800e+00, 1.56288100e+02] )
                 ),
        note = "From the NIST database")

species(name = "H2O",
        atoms = " H:2  O:1 ",
        thermo = (
            Shomate( [     0.0,  1700.0], [ 3.00920000e+01, 6.83251400e+00
                    , 6.79343500e+00, -2.53448000e+00, 8.21390000e-02
                    , -2.50881000e+02, 2.23396700e+02] ),
            Shomate( [  1700.0,  6000.0], [ 4.19642600e+01, 8.62205300e+00
                    , -1.49978000e+00, 9.81190000e-02, -1.11576400e+01
                    , -2.72179700e+02, 2.19780900e+02] )
                 ),
        note = "From the NIST database")

species(name = "OH",
        atoms = " O:1  H:1 ",
        thermo = (
            Shomate( [     0.0,  1300.0], [ 3.22776800e+01, -1.13629100e+01
                    , 1.36054500e+01, -3.84648600e+00, -1.33500000e-03
                    , 2.97511300e+01, 2.25578300e+02] ),
            Shomate( [  1300.0,  6000.0], [ 2.87470100e+01, 4.71448900e+00
                    , -8.14725000e-01, 5.47480000e-02, -2.74782900e+00
                    , 2.64143900e+01, 2.14116600e+02] )
                 ),
        note = "From the NIST database")

species(name = "O",
        atoms = " O:1 ",
        thermo = (
            Shomate( [     0.0,  6000.0], [ 2.11861000e+01, -5.02314000e-01
                    , 1.68694000e-01, -8.96200000e-03, 7.56640000e-02
                    , 2.43130600e+02, 1.87259100e+02] )
                 ),
        note = "From the NIST database")

species(name = "O2",
        atoms = " O:2 ",
        thermo = (
            Shomate( [     0.0,  6000.0], [ 2.96590000e+01, 6.13726100e+00
                    , -1.18652100e+00, 9.57800000e-02, -2.19663000e-01
                    , -9.86139100e+00, 2.37948000e+02] )
                 ),
        note = "From the NIST database")

species(name = "CO",
        atoms = " C:1  O:1 ",
        thermo = (
            Shomate( [     0.0,  1300.0], [ 2.55675900e+01, 6.09613000e+00
                    , 4.05465600e+00, -2.67130100e+00, 1.31021000e-01
                    , -1.18008900e+02, 2.27366500e+02] ),
            Shomate( [  1300.0,  6000.0], [ 3.51507000e+01, 1.30009500e+00
                    , -2.05921000e-01, 1.35500000e-02, -3.28278000e+00
                    , -1.27837500e+02, 2.31712000e+02] )
                 ),
        note = "From the NIST database")

species(name = "CO2",
        atoms = " C:1  O:2 ",
        thermo = (
            Shomate( [     0.0,  1200.0], [ 2.49973500e+01, 5.51869600e+01
                    , -3.36913700e+01, 7.94838700e+00, -1.36638000e-01
                    , -4.03607500e+02, 2.28243100e+02] ),
            Shomate( [  1200.0,  6000.0], [ 5.81663900e+01, 2.72007400e+00
                    , -4.92289000e-01, 3.88440000e-02, -6.44729300e+00
                    , -4.25918600e+02, 2.63612500e+02] )
                 ),
        note = "From the NIST database")

species(name = "HCO",
        atoms = " H:1  C:1  O:1 ",
        thermo = (
            Shomate( [     0.0,  1200.0], [ 2.11380300e+01, 4.04361000e+01
                    , -1.47133700e+01, 9.69010000e-01, 2.39639000e-01
                    , 3.63471200e+01, 2.40169500e+02] ),
            Shomate( [  1200.0,  6000.0], [ 5.27937100e+01, 2.66615500e+00
                    , -3.92339000e-01, 2.38080000e-02, -7.45701800e+00
                    , 1.13779700e+01, 2.67279800e+02] )
                 ),
        note = "From the NIST database")

species(name = "H2CO",
        atoms = " H:2  C:1  O:1 ",
        thermo = (
            Shomate( [     0.0,  1200.0], [ 5.19376700e+00, 9.32324900e+01
                    , -4.48545700e+01, 7.88227900e+00, 5.51175000e-01
                    , -1.12359100e+02, 2.02466300e+02] ),
            Shomate( [  1200.0,  6000.0], [ 7.13526800e+01, 6.17449700e+00
                    , -1.19109000e+00, 7.95640000e-02, -1.55891700e+01
                    , -1.63632700e+02, 2.62318000e+02] )
                 ),
        note = "From the NIST database")

species(name = "C",
        atoms = " C:1 ",
        thermo = (
            Shomate( [     0.0,  6000.0], [ 2.11751000e+01, -8.12430000e-01
                    , 4.48537000e-01, -4.32560000e-02, -1.31030000e-02
                    , 7.10347000e+02, 1.83873400e+02] )
                 ),
        note = "From the NIST database")

species(name = "CH",
        atoms = " C:1  H:1 ",
        thermo = (
            Shomate( [     0.0,  1100.0], [ 3.29421000e+01, -1.67106000e+01
                    , 2.41859500e+01, -7.78470900e+00, -6.51980000e-02
                    , 5.84630300e+02, 2.26513800e+02] ),
            Shomate( [  1100.0,  6000.0], [ 3.01536700e+01, 8.45511200e+00
                    , -1.96964400e+00, 1.54270000e-01, -4.98009000e+00
                    , 5.76689100e+02, 2.09353100e+02] )
                 ),
        note = "From the NIST database")

species(name = "CH2",
        atoms = " C:1  H:2 ",
        thermo = (
            Shomate( [     0.0,  1400.0], [ 3.19682300e+01, 6.78360300e+00
                    , 1.25189000e+01, -5.69626500e+00, -3.11150000e-02
                    , 3.80855800e+02, 2.29915000e+02] ),
            Shomate( [  1400.0,  6000.0], [ 5.15590100e+01, 3.87697500e+00
                    , -6.49608000e-01, 3.79010000e-02, -1.07258900e+01
                    , 3.55171500e+02, 2.32321200e+02] )
                 ),
        note = "From the NIST database")

species(name = "CH3",
        atoms = " C:1  H:3 ",
        thermo = (
            Shomate( [     0.0,  1400.0], [ 2.81378600e+01, 3.67473600e+01
                    , -4.34721800e+00, -1.59567300e+00, 1.86000000e-03
                    , 1.35711800e+02, 2.17481400e+02] ),
            Shomate( [  1400.0,  6000.0], [ 6.71808100e+01, 7.84642300e+00
                    , -1.44089900e+00, 9.26850000e-02, -1.76613300e+01
                    , 9.24710000e+01, 2.35902300e+02] )
                 ),
        note = "From the NIST database")

species(name = "CH4",
        atoms = " C:1  H:4 ",
        thermo = (
            Shomate( [     0.0,  1300.0], [ -7.03029000e-01, 1.08477300e+02
                    , -4.25215700e+01, 5.86278800e+00, 6.78565000e-01
                    , -7.68437600e+01, 1.58716300e+02] ),
            Shomate( [  1300.0,  6000.0], [ 8.58121700e+01, 1.12646700e+01
                    , -2.11414600e+00, 1.38190000e-01, -2.64222100e+01
                    , -1.53532700e+02, 2.24414300e+02] )
                 ),
        note = "From the NIST database")

species(name = "S",
        atoms = " S:1 ",
        thermo = (
            Shomate( [     0.0,  1400.0], [ 2.74596800e+01, -1.33278000e+01
                    , 1.00657400e+01, -2.66238100e+00, -5.58510000e-02
                    , 2.69114900e+02, 2.04295500e+02] ),
            Shomate( [  1400.0,  6000.0], [ 1.65534500e+01, 2.40026600e+00
                    , -2.55760000e-01, 5.82100000e-03, 3.56479300e+00
                    , 2.78435600e+02, 1.94544700e+02] )
                 ),
        note = "From the NIST database")

species(name = "S2",
        atoms = " S:2 ",
        thermo = (
            Shomate( [     0.0,  6000.0], [ 3.35131300e+01, 5.06536000e+00
                    , -1.05967000e+00, 8.99050000e-02, -2.11911000e-01
                    , 1.17685500e+02, 2.66091900e+02] )
                 ),
        note = "From the NIST database")

species(name = "S3",
        atoms = " S:3 ",
        thermo = (
            Shomate( [     0.0,  6000.0], [ 5.37807200e+01, 4.35156900e+00
                    , -3.00000000e-06, -5.00000000e-06, -6.50185000e-01
                    , 1.27000000e+02, 3.29646500e+02] )
                 ),
        note = "From the NIST database")

species(name = "S4",
        atoms = " S:4 ",
        thermo = (
            Shomate( [     0.0,  6000.0], [ 7.98805100e+01, 3.27639400e+00
                    , -1.00000000e-04, 1.00000000e-05, -1.17985100e+00
                    , 1.07000000e+02, 3.99701300e+02] )
                 ),
        note = "From the NIST database")

species(name = "S8",
        atoms = " S:8 ",
        thermo = (
            Shomate( [     0.0,  6000.0], [ 1.80669700e+02, 1.91898800e+00
                    , -5.20130000e-01, 4.43940000e-02, -2.27015500e+00
                    , 3.94500000e+01, 6.35549600e+02] )
                 ),
        note = "From the NIST database")

species(name = "H2S",
        atoms = " H:2  S:1 ",
        thermo = (
            Shomate( [     0.0,  1400.0], [ 2.68841200e+01, 1.86780900e+01
                    , 3.43420300e+00, -3.37870200e+00, 1.35882000e-01
                    , -2.89121100e+01, 2.33374700e+02] ),
            Shomate( [  1400.0,  6000.0], [ 5.12213600e+01, 4.14748600e+00
                    , -6.43566000e-01, 4.16210000e-02, -1.04638500e+01
                    , -5.58760600e+01, 2.43690000e+02] )
                 ),
        note = "From the NIST database")

species(name = "HS",
        atoms = " H:1  S:1 ",
        thermo = (
            Shomate( [     0.0,  1200.0], [ 3.80430600e+01, -2.74679000e+01
                    , 3.40646200e+01, -1.17987500e+01, -9.74300000e-03
                    , 1.32486100e+02, 2.48394500e+02] ),
            Shomate( [  1200.0,  6000.0], [ 3.29950700e+01, 2.84151400e+00
                    , -5.07766000e-01, 3.82470000e-02, -2.90966700e+00
                    , 1.28077000e+02, 2.30006600e+02] )
                 ),
        note = "From the NIST database")

species(name = "SO",
        atoms = " S:1  O:1 ",
        thermo = (
            Shomate( [     0.0,  1400.0], [ 2.25641400e+01, 2.99330500e+01
                    , -2.28798700e+01, 6.40896800e+00, 4.75600000e-02
                    , -2.70223700e+00, 2.41551100e+02] ),
            Shomate( [  1400.0,  6000.0], [ 2.35038700e+01, 1.08213300e+01
                    , -2.26056600e+00, 1.68555000e-01, 5.05255700e+00
                    , 5.42585300e+00, 2.54773400e+02] )
                 ),
        note = "From the NIST database")

species(name = "SO2",
        atoms = " S:1  O:2 ",
        thermo = (
            Shomate( [     0.0,  1200.0], [ 2.14304900e+01, 7.43509400e+01
                    , -5.77521700e+01, 1.63553400e+01, 8.67310000e-02
                    , -3.05768800e+02, 2.54887200e+02] ),
            Shomate( [  1200.0,  6000.0], [ 5.74818800e+01, 1.00932800e+00
                    , -7.62900000e-02, 5.17400000e-03, -4.04540100e+00
                    , -3.24414000e+02, 3.02779800e+02] )
                 ),
        note = "From the NIST database")

species(name = "CS",
        atoms = " C:1  S:1 ",
        thermo = (
            Shomate( [     0.0,   600.0], [ 2.17638700e+01, 2.49989000e+01
                    , -8.09558100e+00, -4.56394900e+00, 1.26372000e-01
                    , 2.73232800e+02, 2.30549700e+02] ),
            Shomate( [   600.0,  6000.0], [ 3.44772100e+01, 2.96625500e+00
                    , -9.50722000e-01, 1.13718000e-01, -9.97482000e-01
                    , 2.67027500e+02, 2.47073100e+02] )
                 ),
        note = "From the NIST database")

species(name = "CS2",
        atoms = " C:1  S:2 ",
        thermo = (
            Shomate( [     0.0,  1000.0], [ 3.58539100e+01, 5.24912100e+01
                    , -4.08374300e+01, 1.20015500e+01, -2.24831000e-01
                    , 1.03503000e+02, 2.66159700e+02] ),
            Shomate( [  1000.0,  6000.0], [ 6.12529200e+01, 1.37882600e+00
                    , -1.40520000e-01, 9.28400000e-03, -3.24404400e+00
                    , 9.00710600e+01, 2.99409100e+02] )
                 ),
        note = "From the NIST database")

species(name = "OCS",
        atoms = " O:1  C:1  S:1 ",
        thermo = (
            Shomate( [     0.0,  1200.0], [ 3.45389200e+01, 4.30537800e+01
                    , -2.66177300e+01, 6.33884400e+00, -3.27515000e-01
                    , -1.51500100e+02, 2.59811800e+02] ),
            Shomate( [  1200.0,  6000.0], [ 6.03224000e+01, 1.73833200e+00
                    , -2.09982000e-01, 1.41100000e-02, -5.12890000e+00
                    , -1.68630700e+02, 2.87645400e+02] )
                 ),
        note = "From the NIST database")

species(name = "CN",
        atoms = " C:1  N:1 ",
        thermo = (
            Shomate( [     0.0,  1100.0], [ 2.63287800e+01, 3.32270400e+00
                    , 8.59088300e+00, -4.87549000e+00, 1.07100000e-01
                    , 4.27433300e+02, 2.33778500e+02] ),
            Shomate( [  1100.0,  6000.0], [ 2.10166100e+01, 9.77060300e+00
                    , -1.02263300e+00, 1.37730000e-02, 4.54140000e+00
                    , 4.35901700e+02, 2.32690200e+02] )
                 ),
        note = "From the NIST database")

species(name = "HCN",
        atoms = " H:1  C:1  N:1 ",
        thermo = (
            Shomate( [     0.0,  1200.0], [ 3.26937300e+01, 2.25920500e+01
                    , -4.36914200e+00, -4.07697000e-01, -2.82400000e-01
                    , 1.18281100e+02, 2.33259700e+02] ),
            Shomate( [  1200.0,  6000.0], [ 5.23652700e+01, 5.56329800e+00
                    , -9.53224000e-01, 5.67110000e-02, -7.56410000e+00
                    , 9.86523000e+01, 2.44844800e+02] )
                 ),
        note = "From the NIST database")

species(name = "N",
        atoms = " N:1 ",
        thermo = (
            Shomate( [     0.0,  6000.0], [ 2.11400000e+01, -3.90000000e-01
                    , 4.00000000e-02, 2.00000000e-02, -3.00000000e-02
                    , 4.66310000e+02, 1.78830000e+02] )
                 ),
        note = "From the NIST database")

species(name = "N2",
        atoms = " N:2 ",
        thermo = (
            Shomate( [     0.0,  6000.0], [ 2.60900000e+01, 8.22000000e+00
                    , -1.98000000e+00, 1.60000000e-01, 4.00000000e-02
                    , -7.99000000e+00, 2.21020000e+02] )
                 ),
        note = "From the NIST database")

species(name = "NH",
        atoms = " N:1  H:1 ",
        thermo = (
            Shomate( [     0.0,   800.0], [ 3.13200000e+01, -8.93154400e+00
                    , 1.15862900e+01, -2.54410000e+00, -4.19000000e-02
                    , 3.67382000e+02, 2.21086700e+02] ),
            Shomate( [   800.0,  6000.0], [ 2.80600000e+01, 5.10084000e+00
                    , -7.67827000e-01, 5.68430000e-02, -1.05470000e+00
                    , 3.66062300e+02, 2.11835100e+02] )
                 ),
        note = "From the NIST database")

species(name = "NH2",
        atoms = " N:1  H:2 ",
        thermo = (
            Shomate( [     0.0,  1300.0], [ 2.98600000e+01, 6.11780300e+00
                    , 1.15497600e+01, -5.02444000e+00, 8.87000000e-02
                    , 1.77205300e+02, 2.29053500e+02] ),
            Shomate( [  1300.0,  6000.0], [ 3.53300000e+01, 1.10155500e+01
                    , -1.17281400e+00, 2.26230000e-02, -2.13600000e+00
                    , 1.69956500e+02, 2.27651900e+02] )
                 ),
        note = "From the NIST database")

species(name = "NH3",
        atoms = " N:1  H:3 ",
        thermo = (
            Shomate( [     0.0,  1400.0], [ 2.00000000e+01, 4.97711900e+01
                    , -1.53759900e+01, 1.92116800e+00, 1.89200000e-01
                    , -5.33066000e+01, 2.03859100e+02] ),
            Shomate( [  1400.0,  6000.0], [ 5.20200000e+01, 1.84880100e+01
                    , -3.76512800e+00, 2.48541000e-01, -1.24580000e+01
                    , -8.55389000e+01, 2.23802200e+02] )
                 ),
        note = "From the NIST database")

species(name = "C2",
        atoms = " C:2 ",
        thermo = (
            Shomate( [     0.0,   700.0], [ 1.23909200e+02, -3.48007000e+02
                    , 4.85097100e+02, -2.32799000e+02, -1.24030000e+00
                    , 7.97277700e+02, 4.26613200e+02] ),
            Shomate( [   700.0,  6000.0], [ 3.05040800e+01, 5.44581100e+00
                    , -8.53373000e-01, 6.56410000e-02, 8.14800000e-01
                    , 8.20578400e+02, 2.40403900e+02] )
                 ),
        note = "From the NIST database")

species(name = "C2H",
        atoms = " C:2  H:1 ",
        thermo = (
            Shomate( [     0.0,  1200.0], [ 3.34091600e+01, 2.41133100e+01
                    , -6.60059500e+00, 2.78912000e-01, -2.59500000e-01
                    , 5.56131100e+02, 2.39514800e+02] ),
            Shomate( [  1200.0,  6000.0], [ 3.92922000e+01, 1.33208100e+01
                    , -1.95236400e+00, 8.62900000e-02, 9.78200000e-01
                    , 5.55302700e+02, 2.48594900e+02] )
                 ),
        note = "From the NIST database")

species(name = "C2H2",
        atoms = " C:2  H:2 ",
        thermo = (
            Shomate( [     0.0,  1100.0], [ 4.06869700e+01, 4.07327900e+01
                    , -1.61784000e+01, 3.66974100e+00, -6.58400000e-01
                    , 2.10706700e+02, 2.35005200e+02] ),
            Shomate( [  1100.0,  6000.0], [ 6.74724400e+01, 1.17511000e+01
                    , -2.02147000e+00, 1.36195000e-01, -9.80640000e+00
                    , 1.85455000e+02, 2.53533700e+02] )
                 ),
        note = "From the NIST database")

species(name = "C2H4",
        atoms = " C:2  H:4 ",
        thermo = (
            Shomate( [     0.0,  1200.0], [ -6.38788000e+00, 1.84401900e+02
                    , -1.12971800e+02, 2.84959300e+01, 3.15540000e-01
                    , 4.81733000e+01, 1.63156800e+02] ),
            Shomate( [  1200.0,  6000.0], [ 1.06510400e+02, 1.37326000e+01
                    , -2.62848100e+00, 1.74595000e-01, -2.61447000e+01
                    , -3.53623000e+01, 2.75042400e+02] )
                 ),
        note = "From the NIST database")

species(name = "NO",
        atoms = " N:1  O:1 ",
        thermo = (
            Shomate( [     0.0,  1200.0], [ 2.38349100e+01, 1.25887800e+01
                    , -1.13901100e+00, -1.49746000e+00, 2.14200000e-01
                    , 8.33578000e+01, 2.37121900e+02] ),
            Shomate( [  1200.0,  6000.0], [ 3.59916900e+01, 9.57170000e-01
                    , -1.48032000e-01, 9.97400000e-03, -3.00410000e+00
                    , 7.31078000e+01, 2.46161900e+02] )
                 ),
        note = "From the NIST database")

species(name = "HNO",
        atoms = " H:1  N:1  O:1 ",
        thermo = (
            Shomate( [     0.0,  1200.0], [ 1.98593600e+01, 4.80084700e+01
                    , -2.54106500e+01, 5.23464400e+00, 2.30115000e-01
                    , 9.95103000e+01, 2.32819900e+02] ),
            Shomate( [  1200.0,  6000.0], [ 5.22564900e+01, 3.10587200e+00
                    , -5.98149000e-01, 3.99040000e-02, -7.45200000e+00
                    , 7.49590000e+01, 2.63253100e+02] )
                 ),
        note = "From the NIST database")

species(name = "HO2",
        atoms = " H:1  O:2 ",
        thermo = (
            Shomate( [     0.0,  2000.0], [ 2.60096000e+01, 3.48600000e+01
                    , -1.63000000e+01, 3.11044100e+00, -1.86000000e-02
                    , 3.00000000e+00, 2.50766000e+02] ),
            Shomate( [  2000.0,  6000.0], [ 4.58751000e+01, 8.81000000e+00
                    , -1.64000000e+00, 9.80530000e-02, -1.01738000e+01
                    , -1.67500000e+01, 2.66530000e+02] )
                 ),
        note = "From the NIST database")

species(name = "HNCO",
        atoms = " H:1  N:1  C:1  O:1 ",
        thermo = (
            Shomate( [     0.0,  1200.0], [ 3.27342800e+01, 6.38147900e+01
                    , -3.84614200e+01, 9.72805200e+00, -3.17587000e-01
                    , -1.32013600e+02, 2.58648200e+02] ),
            Shomate( [  1200.0,  6000.0], [ 7.15978600e+01, 5.91203400e+00
                    , -1.12283900e+00, 7.41710000e-02, -9.81357300e+00
                    , -1.61381100e+02, 2.96420100e+02] )
                 ),
        note = "From the NIST database")

species(name = "N2O",
        atoms = " N:2  O:1 ",
        thermo = (
            Shomate( [     0.0,  1400.0], [ 2.76798800e+01, 5.11489800e+01
                    , -3.06445400e+01, 6.84791100e+00, -1.57906000e-01
                    , 7.12493400e+01, 2.38616400e+02] ),
            Shomate( [  1400.0,  6000.0], [ 6.03027400e+01, 1.03456600e+00
                    , -1.92997000e-01, 1.25400000e-02, -6.86025400e+00
                    , 4.86139000e+01, 2.72500200e+02] )
                 ),
        note = "From the NIST database")

species(name = "H2O2",
        atoms = " H:2  O:2 ",
        thermo = (
            Shomate( [     0.0,  6000.0], [ 3.42566700e+01, 5.51844500e+01
                    , -3.51500000e+01, 9.09000000e+00, -4.20000000e-01
                    , -1.49909800e+02, 2.57060400e+02] )
                 ),
        note = "From the NIST database")

species(name = "O3",
        atoms = " O:3 ",
        thermo = (
            Shomate( [     0.0,  1200.0], [ 2.16615700e+01, 7.98600100e+01
                    , -6.60260300e+01, 1.95836300e+01, -7.92510000e-02
                    , 1.32940700e+02, 2.43640600e+02] ),
            Shomate( [  1200.0,  6000.0], [ 5.78140900e+01, 7.30941000e-01
                    , -3.92530000e-02, 2.61000000e-03, -3.56036700e+00
                    , 1.15771700e+02, 2.94560700e+02] )
                 ),
        note = "From the NIST database")

species(name = "NO2",
        atoms = " N:1  O:2 ",
        thermo = (
            Shomate( [     0.0,  1200.0], [ 1.61085700e+01, 7.58952500e+01
                    , -5.43874000e+01, 1.43077700e+01, 2.39423000e-01
                    , 2.61746400e+01, 2.40538600e+02] ),
            Shomate( [  1200.0,  6000.0], [ 5.68254100e+01, 7.38053000e-01
                    , -1.44721000e-01, 9.77700000e-03, -5.45991100e+00
                    , 2.84645600e+00, 2.90505600e+02] )
                 ),
        note = "From the NIST database")

species(name = "NO3",
        atoms = " N:1  O:3 ",
        thermo = (
            Shomate( [     0.0,  1100.0], [ 1.12231600e+01, 1.66388900e+02
                    , -1.48445800e+02, 4.74059800e+01, -1.76791000e-01
                    , 6.10085800e+01, 2.21767900e+02] ),
            Shomate( [  1100.0,  6000.0], [ 8.22741800e+01, 4.87106000e-01
                    , -9.87690000e-02, 6.85300000e-03, -6.26495400e+00
                    , 2.92231100e+01, 3.26252800e+02] )
                 ),
        note = "From the NIST database")

species(name = "SO3",
        atoms = " S:1  O:3 ",
        thermo = (
            Shomate( [     0.0,  1200.0], [ 2.40250300e+01, 1.19460700e+02
                    , -9.43868600e+01, 2.69623700e+01, -1.17517000e-01
                    , -4.07852600e+02, 2.53518600e+02] ),
            Shomate( [  1200.0,  6000.0], [ 8.19900800e+01, 6.22236000e-01
                    , -1.22440000e-01, 8.29400000e-03, -6.70368800e+00
                    , -4.37659000e+02, 3.30926400e+02] )
                 ),
        note = "From the NIST database")

species(name = "HNO2",
        atoms = " H:1  N:1  O:2 ",
        thermo = (
            Shomate( [     0.0,  1200.0], [ 2.48997400e+01, 9.13756300e+01
                    , -6.48461400e+01, 1.79200700e+01, -1.34737000e-01
                    , -8.81359600e+01, 2.54267100e+02] ),
            Shomate( [  1200.0,  6000.0], [ 7.36513700e+01, 4.85498800e+00
                    , -9.21409000e-01, 6.08370000e-02, -9.11179000e+00
                    , -1.19389600e+02, 3.10344000e+02] )
                 ),
        note = "From the NIST database")

species(name = "HNO3",
        atoms = " H:1  N:1  O:3 ",
        thermo = (
            Shomate( [     0.0,  1200.0], [ 1.96322900e+01, 1.53959900e+02
                    , -1.15837800e+02, 3.28795500e+01, -2.49114000e-01
                    , -1.46881800e+02, 2.47704900e+02] ),
            Shomate( [  1200.0,  6000.0], [ 9.74595900e+01, 5.42957700e+00
                    , -1.02968800e+00, 6.79500000e-02, -1.22931400e+01
                    , -1.92491200e+02, 3.43805100e+02] )
                 ),
        note = "From the NIST database")

species(name = "H2SO4",
        atoms = " H:2  S:1  O:4 ",
        thermo = (
            Shomate( [     0.0,  1200.0], [ 4.72892400e+01, 1.90331400e+02
                    , -1.48129900e+02, 4.38663100e+01, -7.40016000e-01
                    , -7.58952500e+02, 3.01296100e+02] ),
            Shomate( [  1200.0,  6000.0], [ 1.39228900e+02, 9.51366300e+00
                    , -1.79557700e+00, 1.18069000e-01, -1.56148600e+01
                    , -8.13097600e+02, 4.16185400e+02] )
                 ),
        note = "From the NIST database")

species(name = "HCl",
        atoms = " H:1  Cl:1 ",
        thermo = (
            Shomate( [     0.0,  1200.0], [ 3.21239200e+01, -1.34580500e+01
                    , 1.98685200e+01, -6.85394000e+00, -4.96720000e-02
                    , -1.01620600e+02, 2.28686600e+02] ),
            Shomate( [  1200.0,  6000.0], [ 3.19192300e+01, 3.20318400e+00
                    , -5.41539000e-01, 3.59250000e-02, -3.43852500e+00
                    , -1.08015000e+02, 2.18276800e+02] )
                 ),
        note = "From the NIST database")

species(name = "Cl",
        atoms = " Cl:1 ",
        thermo = (
            Shomate( [     0.0,   600.0], [ 1.33829800e+01, 4.23399900e+01
                    , -6.47465600e+01, 3.29953200e+01, 6.33190000e-02
                    , 1.16149100e+02, 1.71703800e+02] ),
            Shomate( [   600.0,  6000.0], [ 2.32659700e+01, -1.55593900e+00
                    , 3.46910000e-01, -2.59600000e-02, 1.53212000e-01
                    , 1.14660400e+02, 1.93888200e+02] )
                 ),
        note = "From the NIST database")

species(name = "Cl2",
        atoms = " Cl:2 ",
        thermo = (
            Shomate( [     0.0,  1000.0], [ 3.30506000e+01, 1.22294000e+01
                    , -1.20651000e+01, 4.38533000e+00, -1.59494000e-01
                    , -1.08348000e+01, 2.59029000e+02] ),
            Shomate( [  1000.0,  3000.0], [ 4.26773000e+01, -5.00957000e+00
                    , 1.90462100e+00, -1.65640000e-01, -2.09848000e+00
                    , -1.72898000e+01, 2.69840000e+02] )
                 ),
        note = "From the NIST database")

species(name = "HOCl",
        atoms = " H:1  O:1  Cl:1 ",
        thermo = (
            Shomate( [     0.0,  1400.0], [ 3.05435300e+01, 3.36896500e+01
                    , -2.09478700e+01, 5.42196200e+00, -1.43287000e-01
                    , -8.53866500e+01, 2.63494500e+02] ),
            Shomate( [  1400.0,  6000.0], [ 5.39840600e+01, 1.45204900e+00
                    , -2.47662000e-01, 3.51300000e-02, -8.42084500e+00
                    , -1.06285300e+02, 2.83268100e+02] )
                 ),
        note = "From the NIST database")

species(name = "N2H4",
        atoms = " N:2  H:4 ",
        thermo = (
            Shomate( [     0.0,  2000.0], [ 3.51824000e+01, 9.60526000e+01
                    , -4.05013000e+01, 6.66807000e+00, -8.74233000e-01
                    , 7.79915000e+01, 2.49425000e+02] ),
            Shomate( [  2000.0,  6000.0], [ 1.21401000e+02, 4.81688000e+00
                    , -7.63012000e-01, 4.32320000e-02, -4.07865000e+01
                    , -1.13811000e+01, 3.05344000e+02] )
                 ),
        note = "From the NIST database")

species(name = "ClO",
        atoms = " Cl:1  O:1 ",
        thermo = (
            Shomate( [     0.0,   600.0], [ 1.87176700e+01, 5.90797500e+01
                    , -7.38229100e+01, 3.45622200e+01, 7.64450000e-02
                    , 9.38529800e+01, 2.35090600e+02] ),
            Shomate( [   600.0,  6000.0], [ 3.69964800e+01, 7.48572000e-01
                    , -6.75200000e-02, 5.23400000e-03, -7.87617000e-01
                    , 8.77522900e+01, 2.67435000e+02] )
                 ),
        note = "From the NIST database")

species(name = "C2H6",
        atoms = " C:2  H:6 ",
        thermo = (
            Shomate( [     0.0,  3000.0], [ 6.08160000e+00, 1.73580000e+02
                    , -6.69190000e+01, 9.08910000e+00, 1.29140000e-01
                    , -9.26000000e+01, 1.88800000e+02] ),