# Generated from titan_205.rx, and thermodata120.rx
# on 2/8/2021. This is Kevin Zahnle's reaction mechanism designed
# for atmospheric chemistry.

units(length="cm", quantity = "molec", act_energy = "K")

ideal_gas(name = "zahnle",
          elements = "O H C N S",
          species = """H H2 O OH H2O O2 C CO CO2 HCO
                        H2CO CH CH2 CH3 H2COH CH4 CH3O CH3OH C2 C2H
                        C2H2 C2H3 C2H4 C2H5 C2H6 C4H C4H2 C2H2OH CH2CHO CH2CO
                        C2H4OH C2H3OH N N2 NO NH NH2 NH3 CN HCN
                        HCNOH H2CN S S2 S3 S4 S8 HS H2S SO
                        SO2 HSO OCS CS CS2 HCS 1CH2 O1D HCCO NCO
                        HNCO NH2CO NNH N2H2 N2H3 N2H4 HO2 H2O2 O3
                        HNO N2O NO2 HNO2 HNO3 NO3 SO3 HSO3 H2SO4 CH3O2""",
          reactions = "all",
          initial_state = state(temperature = 300.0, pressure = OneAtm) )

#-------------------------------------------------------------------------------
#  Species data
#-------------------------------------------------------------------------------
species(name = "H",
        atoms = " H:1 ",
        thermo = (
            NASA9( [   200.0,  1000.0], [ 0.00000000e+00, 0.00000000e+00
                    , 2.50000000e+00, 0.00000000e+00, 0.00000000e+00
                    , 0.00000000e+00, 0.00000000e+00, 2.54737080e+04
                    , -4.46682853e-01] ),
            NASA9( [  1000.0,  6000.0], [ 6.07877425e+01, -1.81935442e-01
                    , 2.50021182e+00, -1.22651286e-07, 3.73287633e-11
                    , -5.68774456e-15, 3.41021020e-19, 2.54748640e+04
                    , -4.48191777e-01] ),
            NASA9( [  6000.0, 20000.0], [ 2.17375769e+08, -1.31203540e+05
                    , 3.39917420e+01, -3.81399968e-03, 2.43285484e-07
                    , -7.69427554e-12, 9.64410563e-17, 1.06763809e+06
                    , -2.74230105e+02] )
                 ),
        note = "nasa9 polynomials (tinyurl.com/122wp6ee)")

species(name = "H2",
        atoms = " H:2 ",
        thermo = (
            NASA9( [   200.0,  1000.0], [ 4.07832281e+04, -8.00918545e+02
                    , 8.21470167e+00, -1.26971436e-02, 1.75360493e-05
                    , -1.20286016e-08, 3.36809316e-12, 2.68248438e+03
                    , -3.04378866e+01] ),
            NASA9( [  1000.0,  6000.0], [ 5.60812338e+05, -8.37149134e+02
                    , 2.97536304e+00, 1.25224993e-03, -3.74071842e-07
                    , 5.93662825e-11, -3.60699573e-15, 5.33981585e+03
                    , -2.20276405e+00] ),
            NASA9( [  6000.0, 20000.0], [ 4.96671613e+08, -3.14744812e+05
                    , 7.98388750e+01, -8.41450419e-03, 4.75306044e-07
                    , -1.37180973e-11, 1.60537460e-16, 2.48835466e+06
                    , -6.69552419e+02] )
                 ),
        note = "nasa9 polynomials (tinyurl.com/122wp6ee)")

species(name = "H2O",
        atoms = " H:2  O:1 ",
        thermo = (
            NASA9( [   200.0,  1000.0], [ -3.94796083e+04, 5.75573102e+02
                    , 9.31782653e-01, 7.22271286e-03, -7.34255737e-06
                    , 4.95504349e-09, -1.33693325e-12, -3.30397431e+04
                    , 1.72420578e+01] ),
            NASA9( [  1000.0,  6000.0], [ 1.03497210e+06, -2.41269856e+03
                    , 4.64611078e+00, 2.29199831e-03, -6.83683048e-07
                    , 9.42646893e-11, -4.82238053e-15, -1.38428651e+04
                    , -7.97814851e+00] )
                 ),
        note = "nasa9 polynomials (tinyurl.com/122wp6ee)")

species(name = "OH",
        atoms = " O:1  H:1 ",
        thermo = (
            NASA9( [   200.0,  1000.0], [ -1.99885899e+03, 9.30013616e+01
                    , 3.05085423e+00, 1.52952929e-03, -3.15789100e-06
                    , 3.31544618e-09, -1.13876268e-12, 3.23968348e+03
                    , 4.67411079e+00] ),
            NASA9( [  1000.0,  6000.0], [ 1.01739338e+06, -2.50995728e+03
                    , 5.11654786e+00, 1.30529993e-04, -8.28432226e-08
                    , 2.00647594e-11, -1.55699366e-15, 2.04448713e+04
                    , -1.10128234e+01] ),
            NASA9( [  6000.0, 20000.0], [ 2.84723419e+08, -1.85953261e+05
                    , 5.00824090e+01, -5.14237498e-03, 2.87553659e-07
                    , -8.22881796e-12, 9.56722902e-17, 1.46864238e+06
                    , -4.02355558e+02] )
                 ),
        note = "nasa9 polynomials (tinyurl.com/122wp6ee)")

species(name = "O",
        atoms = " O:1 ",
        thermo = (
            NASA9( [   200.0,  1000.0], [ -7.95361130e+03, 1.60717779e+02
                    , 1.96622644e+00, 1.01367031e-03, -1.11041542e-06
                    , 6.51750750e-10, -1.58477925e-13, 2.84036244e+04
                    , 8.40424182e+00] ),
            NASA9( [  1000.0,  6000.0], [ 2.61902026e+05, -7.29872203e+02
                    , 3.31717727e+00, -4.28133436e-04, 1.03610459e-07
                    , -9.43830433e-12, 2.72503830e-16, 3.39242806e+04
                    , -6.67958535e-01] ),
            NASA9( [  6000.0, 20000.0], [ 1.77900426e+08, -1.08232826e+05
                    , 2.81077836e+01, -2.97523226e-03, 1.85499753e-07
                    , -5.79623154e-12, 7.19172016e-17, 8.89094263e+05
                    , -2.18172815e+02] )
                 ),
        note = "nasa9 polynomials (tinyurl.com/122wp6ee)")

species(name = "O2",
        atoms = " O:2 ",
        thermo = (
            NASA9( [   200.0,  1000.0], [ -3.42556342e+04, 4.84700097e+02
                    , 1.11901096e+00, 4.29388924e-03, -6.83630052e-07
                    , -2.02337270e-09, 1.03904002e-12, -3.39145487e+03
                    , 1.84969947e+01] ),
            NASA9( [  1000.0,  6000.0], [ -1.03793902e+06, 2.34483028e+03
                    , 1.81973204e+00, 1.26784758e-03, -2.18806799e-07
                    , 2.05371957e-11, -8.19346705e-16, -1.68901093e+04
                    , 1.73871651e+01] ),
            NASA9( [  6000.0, 20000.0], [ 4.97529430e+08, -2.86610687e+05
                    , 6.69035225e+01, -6.16995902e-03, 3.01639603e-07
                    , -7.42141660e-12, 7.27817577e-17, 2.29355403e+06
                    , -5.53062161e+02] )
                 ),
        note = "nasa9 polynomials (tinyurl.com/122wp6ee)")

species(name = "CO",
        atoms = " C:1  O:1 ",
        thermo = (
            NASA9( [   200.0,  1000.0], [ 1.48902756e+04, -2.92225095e+02
                    , 5.72445841e+00, -8.17613694e-03, 1.45688598e-05
                    , -1.08773325e-08, 3.02790549e-12, -1.30306970e+04
                    , -7.85917928e+00] ),
            NASA9( [  1000.0,  6000.0], [ 4.61915856e+05, -1.94468575e+03
                    , 5.91664709e+00, -5.66423407e-04, 1.39880257e-07
                    , -1.78766498e-11, 9.62085040e-16, -2.46573844e+03
                    , -1.38740260e+01] ),
            NASA9( [  6000.0, 20000.0], [ 8.86855241e+08, -7.50028541e+05
                    , 2.49544449e+02, -3.95630299e-02, 3.29773210e-06
                    , -1.31839398e-10, 1.99891378e-15, 5.70135124e+06
                    , -2.06067961e+03] )
                 ),
        note = "nasa9 polynomials (tinyurl.com/122wp6ee)")

species(name = "CO2",
        atoms = " C:1  O:2 ",
        thermo = (
            NASA9( [   200.0,  1000.0], [ 4.94378364e+04, -6.26429208e+02
                    , 5.30181336e+00, 2.50360057e-03, -2.12470010e-07
                    , -7.69148680e-10, 2.84997991e-13, -4.52818986e+04
                    , -7.04879010e+00] ),
            NASA9( [  1000.0,  6000.0], [ 1.17696943e+05, -1.78880147e+03
                    , 8.29154353e+00, -9.22477831e-05, 4.86963541e-09
                    , -1.89206384e-12, 6.33067509e-16, -3.90834501e+04
                    , -2.65268396e+01] ),
            NASA9( [  6000.0, 20000.0], [ -1.54440623e+09, 1.01683614e+06
                    , -2.56137710e+02, 3.36936393e-02, -2.18115791e-06
                    , 6.99132485e-11, -8.84221214e-16, -8.04312850e+06
                    , 2.25415324e+03] )
                 ),
        note = "nasa9 polynomials (tinyurl.com/122wp6ee)")

species(name = "HCO",
        atoms = " H:1  C:1  O:1 ",
        thermo = (
            NASA9( [   200.0,  1000.0], [ -1.18990685e+04, 2.15161177e+02
                    , 2.73018395e+00, 1.80662153e-03, 4.98415305e-06
                    , -5.81446267e-09, 1.86965972e-12, 2.90571906e+03
                    , 1.13679348e+01] ),
            NASA9( [  1000.0,  6000.0], [ 6.91133570e+05, -3.64321780e+03
                    , 9.58708488e+00, -1.10489181e-03, 2.82948854e-07
                    , -3.53797286e-11, 1.73969010e-15, 2.53562265e+04
                    , -3.57019870e+01] )
                 ),
        note = "nasa9 polynomials (tinyurl.com/122wp6ee)")

species(name = "H2CO",
        atoms = " H:2  C:1  O:1 ",
        thermo = (
            NASA9( [   200.0,  1000.0], [ -1.17392211e+05, 1.87363655e+03
                    , -6.89032771e+00, 2.64157147e-02, -2.18640243e-05
                    , 1.00570211e-08, -2.02350294e-12, -2.30735552e+04
                    , 6.42044119e+01] ),
            NASA9( [  1000.0,  6000.0], [ 1.70079900e+06, -7.62078666e+03
                    , 1.47244099e+01, -1.64907993e-03, 3.29206332e-07
                    , -3.49494520e-11, 1.52608199e-15, 3.14676911e+04
                    , -7.38643213e+01] )
                 ),
        note = "nasa9 polynomials (tinyurl.com/122wp6ee)")

species(name = "C",
        atoms = " C:1 ",
        thermo = (
            NASA9( [   200.0,  1000.0], [ 6.49503147e+02, -9.64901086e-01
                    , 2.50467548e+00, -1.28144803e-05, 1.98013365e-08
                    , -1.60614403e-11, 5.31448341e-15, 8.54576311e+04
                    , 4.74792429e+00] ),
            NASA9( [  1000.0,  6000.0], [ -1.28913647e+05, 1.71952857e+02
                    , 2.64604439e+00, -3.35306895e-04, 1.74209274e-07
                    , -2.90281783e-11, 1.64218238e-15, 8.41059785e+04
                    , 4.13004742e+00] ),
            NASA9( [  6000.0, 20000.0], [ 4.43252801e+08, -2.88601841e+05
                    , 7.73710832e+01, -9.71528189e-03, 6.64959533e-07
                    , -2.23007878e-11, 2.89938870e-16, 2.35527344e+06
                    , -6.40512316e+02] )
                 ),
        note = "nasa9 polynomials (tinyurl.com/122wp6ee)")

species(name = "CH",
        atoms = " C:1  H:1 ",
        thermo = (
            NASA9( [   200.0,  1000.0], [ 2.22056413e+04, -3.40537175e+02
                    , 5.53138641e+00, -5.79489639e-03, 7.96946173e-06
                    , -4.46585989e-09, 9.59622884e-13, 7.24039052e+04
                    , -9.10763613e+00] ),
            NASA9( [  1000.0,  6000.0], [ 2.06073377e+06, -5.39612964e+03
                    , 7.85618794e+00, -7.96575798e-04, 1.76427377e-07
                    , -1.97634586e-11, 5.03028668e-16, 1.06219245e+05
                    , -3.15471802e+01] ),
            NASA9( [  6000.0, 20000.0], [ -8.06826755e+08, 4.57539322e+05
                    , -9.84385128e+01, 1.23522859e-02, -8.48550223e-07
                    , 3.04037261e-11, -4.40026028e-16, -3.59580957e+06
                    , 8.95336436e+02] )
                 ),
        note = "nasa9 polynomials (tinyurl.com/122wp6ee)")

species(name = "CH2",
        atoms = " C:1  H:2 ",
        thermo = (
            NASA9( [   200.0,  1000.0], [ 3.52591418e+04, -3.36765436e+02
                    , 4.50893691e+00, 2.52106603e-03, -5.31151087e-06
                    , 6.65421308e-09, -2.61007296e-12, 4.73772550e+04
                    , -3.80740428e+00] ),
            NASA9( [  1000.0,  6000.0], [ 2.51041594e+06, -7.95393239e+03
                    , 1.23882957e+01, -1.77590968e-03, 3.21740029e-07
                    , -3.06886344e-11, 1.20490060e-15, 9.60102856e+04
                    , -6.15598441e+01] )
                 ),
        note = "nasa9 polynomials (tinyurl.com/122wp6ee)")

species(name = "CH3",
        atoms = " C:1  H:3 ",
        thermo = (
            NASA9( [   200.0,  1000.0], [ -2.87728611e+04, 5.09505607e+02
                    , 1.99073056e-01, 1.36396516e-02, -1.43455892e-05
                    , 1.01396738e-08, -3.02843889e-12, 1.41109873e+04
                    , 2.02338863e+01] ),
            NASA9( [  1000.0,  6000.0], [ 2.76090427e+06, -9.33655279e+03
                    , 1.48769863e+01, -1.43922769e-03, 2.44392393e-07
                    , -2.22384579e-11, 8.39158849e-16, 7.48476479e+04
                    , -7.91948933e+01] )
                 ),
        note = "nasa9 polynomials (tinyurl.com/122wp6ee)")

species(name = "CH4",
        atoms = " C:1  H:4 ",
        thermo = (
            NASA9( [   200.0,  1000.0], [ -1.76654573e+05, 2.78547782e+03
                    , -1.20193547e+01, 3.91462588e-02, -3.61165608e-05
                    , 2.01838794e-08, -4.95577215e-12, -2.33101156e+04
                    , 8.90107539e+01] ),
            NASA9( [  1000.0,  6000.0], [ 3.74626570e+06, -1.38885134e+04
                    , 2.05402982e+01, -1.94419693e-03, 4.32387145e-07
                    , -4.06101278e-11, 1.64315927e-15, 7.56598868e+04
                    , -1.22297767e+02] )
                 ),
        note = "nasa9 polynomials (tinyurl.com/122wp6ee)")

species(name = "S",
        atoms = " S:1 ",
        thermo = (
            NASA9( [   200.0,  1000.0], [ -3.17484182e+02, -1.92470492e+02
                    , 4.68682593e+00, -5.84136560e-03, 7.53853352e-06
                    , -4.86358604e-09, 1.25697699e-12, 3.32359218e+04
                    , -5.71847719e+00] ),
            NASA9( [  1000.0,  6000.0], [ -4.85424479e+05, 1.43883041e+03
                    , 1.25850412e+00, 3.79799043e-04, 1.63068586e-09
                    , -9.54709585e-12, 8.04146665e-16, 2.33499527e+04
                    , 1.55955953e+01] ),
            NASA9( [  6000.0, 20000.0], [ -1.30200541e+08, 6.90936202e+04
                    , -1.17622802e+01, 1.60154085e-03, -1.05053334e-07
                    , 4.34182902e-12, -7.67562193e-17, -5.26148503e+05
                    , 1.32219572e+02] )
                 ),
        note = "nasa9 polynomials (tinyurl.com/122wp6ee)")

species(name = "S2",
        atoms = " S:2 ",
        thermo = (
            NASA9( [   200.0,  1000.0], [ 3.52809178e+04, -4.22215658e+02
                    , 4.67743349e+00, 1.72404636e-03, -3.86220821e-06
                    , 3.33615634e-09, -9.93066154e-13, 1.65476771e+04
                    , -7.95681124e-01] ),
            NASA9( [  1000.0,  6000.0], [ -1.58812879e+04, 6.31548088e+02
                    , 2.44962807e+00, 1.98624057e-03, -6.50792724e-07
                    , 1.00281365e-10, -5.59699005e-15, 1.08550843e+04
                    , 1.45854919e+01] )
                 ),
        note = "nasa9 polynomials (tinyurl.com/122wp6ee)")

species(name = "S3",
        atoms = " S:3 ",
        thermo = (
            NASA9( [   200.0,  1000.0], [ 7.24540366e+04, -1.16214804e+03
                    , 9.95542173e+00, -4.15805253e-03, 3.24182449e-06
                    , -1.26468843e-09, 1.77758568e-13, 2.14627607e+04
                    , -2.58752555e+01] ),
            NASA9( [  1000.0,  6000.0], [ -1.11782010e+05, -5.19865600e+01
                    , 7.03878191e+00, -1.54857341e-05, 3.41500093e-09
                    , -3.90846180e-13, 1.80843752e-17, 1.52541008e+04
                    , -7.61013739e+00] )
                 ),
        note = "nasa9 polynomials (tinyurl.com/122wp6ee)")

species(name = "S4",
        atoms = " S:4 ",
        thermo = (
            NASA9( [   200.0,  1000.0], [ 1.19867386e+05, -2.04079872e+03
                    , 1.51024076e+01, -7.04123326e-03, 5.35055555e-06
                    , -2.00243389e-09, 2.57012632e-13, 2.41091544e+04
                    , -5.50318136e+01] ),
            NASA9( [  1000.0,  6000.0], [ -2.06858571e+05, -9.68885962e+01
                    , 1.00723493e+01, -2.89029400e-05, 6.37334484e-09
                    , -7.28973574e-13, 3.36914517e-17, 1.32106297e+04
                    , -2.34480845e+01] )
                 ),
        note = "nasa9 polynomials (tinyurl.com/122wp6ee)")

species(name = "S8",
        atoms = " S:8 ",
        thermo = (
            NASA9( [   200.0,  1000.0], [ 3.14537784e+05, -6.11616349e+03
                    , 4.87514013e+01, -6.24129109e-02, 7.42111782e-05
                    , -3.72593983e-08, 5.79798838e-12, 3.57372387e+04
                    , -2.28859676e+02] ),
            NASA9( [  1000.0,  6000.0], [ -8.72833609e+06, 1.22173891e+04
                    , 2.20984341e+01, -3.49345149e-03, 1.39743330e-06
                    , -2.16957793e-10, 1.21217600e-14, -8.65882809e+04
                    , -6.43489862e+01] )
                 ),
        note = "nasa9 polynomials (tinyurl.com/122wp6ee)")

species(name = "H2S",
        atoms = " H:2  S:1 ",
        thermo = (
            NASA9( [   200.0,  1000.0], [ 1.19702174e+04, -1.02893851e+02
                    , 4.23994637e+00, -8.01811267e-04, 4.47641988e-06
                    , -2.74774264e-09, 4.52748818e-13, -3.11403474e+03
                    , 3.80763446e-01] ),
            NASA9( [  1000.0,  6000.0], [ 1.43231693e+06, -5.29096566e+03
                    , 1.01683176e+01, -9.72130684e-04, 2.11965769e-07
                    , -2.18037133e-11, 9.37285823e-16, 2.91313932e+04
                    , -4.35420197e+01] )
                 ),
        note = "nasa9 polynomials (tinyurl.com/122wp6ee)")

species(name = "HS",
        atoms = " H:1  S:1 ",
        thermo = (
            NASA9( [   200.0,  1000.0], [ 6.38943468e+03, -3.74796092e+02
                    , 7.54814577e+00, -1.28887548e-02, 1.90778634e-05
                    , -1.26503373e-08, 3.23515869e-12, 1.72217718e+04
                    , -1.76075731e+01] ),
            NASA9( [  1000.0,  6000.0], [ 1.68263160e+06, -5.17715221e+03
                    , 9.19816852e+00, -2.32355022e-03, 6.54391478e-07
                    , -8.46847042e-11, 3.86474155e-15, 4.87848927e+04
                    , -3.77039574e+01] )
                 ),
        note = "nasa9 polynomials (tinyurl.com/122wp6ee)")

species(name = "SO",
        atoms = " S:1  O:1 ",
        thermo = (
            NASA9( [   200.0,  1000.0], [ -3.34275700e+04, 6.40386250e+02
                    , -1.00664123e+00, 1.38151271e-02, -1.70448636e-05
                    , 1.06129493e-08, -2.64579620e-12, -3.37129219e+03
                    , 3.09386508e+01] ),
            NASA9( [  1000.0,  6000.0], [ -1.44341056e+06, 4.11387436e+03
                    , -5.38369578e-01, 2.79415327e-03, -6.63335226e-07
                    , 7.83822119e-11, -3.56050907e-15, -2.70883806e+04
                    , 3.61536145e+01] )
                 ),
        note = "nasa9 polynomials (tinyurl.com/122wp6ee)")

species(name = "SO2",
        atoms = " S:1  O:2 ",
        thermo = (
            NASA9( [   200.0,  1000.0], [ -5.31084214e+04, 9.09031167e+02
                    , -2.35689124e+00, 2.20444989e-02, -2.51078147e-05
                    , 1.44630048e-08, -3.36907094e-12, -4.11375208e+04
                    , 4.04551486e+01] ),
            NASA9( [  1000.0,  6000.0], [ -1.12764012e+05, -8.25226138e+02
                    , 7.61617863e+00, -1.99932761e-04, 5.65563143e-08
                    , -5.45431661e-12, 2.91829410e-16, -3.35130869e+04
                    , -1.65577374e+01] )
                 ),
        note = "nasa9 polynomials (tinyurl.com/122wp6ee)")

species(name = "CS",
        atoms = " C:1  S:1 ",
        thermo = (
            NASA9( [   200.0,  1000.0], [ -4.92491322e+04, 8.16706576e+02
                    , -1.54305190e+00, 1.38033935e-02, -1.57442906e-05
                    , 9.16986981e-09, -2.16974566e-12, 2.87987298e+04
                    , 3.30857353e+01] ),
            NASA9( [  1000.0,  6000.0], [ -9.71961200e+05, 2.33920906e+03
                    , 1.70938511e+00, 1.57718003e-03, -4.14633373e-07
                    , 4.50474664e-11, -5.94536024e-16, 1.69571024e+04
                    , 1.87405473e+01] )
                 ),
        note = "nasa9 polynomials (tinyurl.com/122wp6ee)")

species(name = "CS2",
        atoms = " C:1  S:2 ",
        thermo = (
            NASA9( [   200.0,  1000.0], [ 1.61328708e+04, -4.64908902e+02
                    , 6.29771975e+00, 1.88950785e-03, 3.02288547e-07
                    , -1.73696947e-09, 7.79198512e-13, 1.47774233e+04
                    , -9.30213197e+00] ),
            NASA9( [  1000.0,  6000.0], [ -1.39042094e+06, 3.35497003e+03
                    , 3.01926383e+00, 2.87642332e-03, -9.07675673e-07
                    , 1.37408088e-10, -6.99950719e-15, -1.01389546e+04
                    , 1.56510649e+01] )
                 ),
        note = "nasa9 polynomials (tinyurl.com/122wp6ee)")

species(name = "OCS",
        atoms = " O:1  C:1  S:1 ",
        thermo = (
            NASA9( [   200.0,  1000.0], [ 8.54794437e+04, -1.31947356e+03
                    , 9.73530042e+00, -6.87093930e-03, 1.08234624e-05
                    , -7.70570274e-09, 2.07860056e-12, -1.19165339e+04
                    , -2.99201135e+01] ),
            NASA9( [  1000.0,  6000.0], [ 1.95869636e+05, -1.75606115e+03
                    , 8.71032183e+00, -4.13887821e-04, 1.01509965e-07
                    , -1.15942092e-11, 5.69008820e-16, -8.92778737e+03
                    , -2.63624749e+01] )
                 ),
        note = "nasa9 polynomials (tinyurl.com/122wp6ee)")

species(name = "CN",
        atoms = " C:1  N:1 ",
        thermo = (
            NASA9( [   200.0,  1000.0], [ 3.94910175e+03, -1.39157387e+02
                    , 4.93077604e+00, -6.30459473e-03, 1.25682136e-05
                    , -9.87818175e-09, 2.84310304e-12, 5.22845470e+04
                    , -2.76311459e+00] ),
            NASA9( [  1000.0,  6000.0], [ -2.22797608e+06, 5.04066445e+03
                    , -2.12179448e-01, 1.35488122e-03, 1.32592277e-07
                    , -6.93693400e-11, 5.49489162e-15, 1.78454233e+04
                    , 3.28251552e+01] ),
            NASA9( [  6000.0, 20000.0], [ -1.79477307e+08, 1.05433143e+05
                    , -1.72959888e+01, 2.19486383e-03, -8.50880168e-08
                    , 9.31846830e-13, 6.35821408e-18, -7.96247645e+05
                    , 1.91311239e+02] )
                 ),
        note = "nasa9 polynomials (tinyurl.com/122wp6ee)")

species(name = "HCN",
        atoms = " H:1  C:1  N:1 ",
        thermo = (
            NASA9( [   200.0,  1000.0], [ 9.09829783e+04, -1.23865966e+03
                    , 8.72132229e+00, -6.52828128e-03, 8.87274723e-06
                    , -4.80890877e-09, 9.31791773e-13, 2.12197899e+04
                    , -2.74668668e+01] ),
            NASA9( [  1000.0,  6000.0], [ 1.23689825e+06, -4.44676184e+03
                    , 9.73891163e+00, -5.85539810e-04, 1.07285501e-07
                    , -1.01340360e-11, 3.34873666e-16, 4.24459481e+04
                    , -4.00580075e+01] )
                 ),
        note = "nasa9 polynomials (tinyurl.com/122wp6ee)")

species(name = "N",
        atoms = " N:1 ",
        thermo = (
            NASA9( [   200.0,  1000.0], [ 0.00000000e+00, 0.00000000e+00
                    , 2.50000000e+00, 0.00000000e+00, 0.00000000e+00
                    , 0.00000000e+00, 0.00000000e+00, 5.61046378e+04
                    , 4.19390932e+00] ),
            NASA9( [  1000.0,  6000.0], [ 8.87650138e+04, -1.07123150e+02
                    , 2.36218829e+00, 2.91672008e-04, -1.72951510e-07
                    , 4.01265788e-11, -2.67722757e-15, 5.69735133e+04
                    , 4.86523579e+00] ),
            NASA9( [  6000.0, 20000.0], [ 5.47518105e+08, -3.10757498e+05
                    , 6.91678274e+01, -6.84798813e-03, 3.82757240e-07
                    , -1.09836771e-11, 1.27798602e-16, 2.55058562e+06
                    , -5.84876971e+02] )
                 ),
        note = "nasa9 polynomials (tinyurl.com/122wp6ee)")

species(name = "N2",
        atoms = " N:2 ",
        thermo = (
            NASA9( [   200.0,  1000.0], [ 2.21037150e+04, -3.81846182e+02
                    , 6.08273836e+00, -8.53091441e-03, 1.38464619e-05
                    , -9.62579362e-09, 2.51970581e-12, 7.10846086e+02
                    , -1.07600332e+01] ),
            NASA9( [  1000.0,  6000.0], [ 5.87712406e+05, -2.23924907e+03
                    , 6.06694922e+00, -6.13968550e-04, 1.49180668e-07
                    , -1.92310549e-11, 1.06195439e-15, 1.28321041e+04
                    , -1.58663960e+01] ),
            NASA9( [  6000.0, 20000.0], [ 8.31013916e+08, -6.42073354e+05
                    , 2.02026464e+02, -3.06509205e-02, 2.48690333e-06
                    , -9.70595411e-11, 1.43753888e-15, 4.93870704e+06
                    , -1.67209974e+03] )
                 ),
        note = "nasa9 polynomials (tinyurl.com/122wp6ee)")

species(name = "NH",
        atoms = " N:1  H:1 ",
        thermo = (
            NASA9( [   200.0,  1000.0], [ 1.35965132e+04, -1.90029660e+02
                    , 4.51849679e+00, -2.43277690e-03, 2.37758746e-06
                    , -2.59279708e-10, -2.65968079e-13, 4.28097219e+04
                    , -3.88655762e+00] ),
            NASA9( [  1000.0,  6000.0], [ 1.95814199e+06, -5.78286130e+03
                    , 9.33574202e+00, -2.29291031e-03, 6.07609248e-07
                    , -6.64794275e-11, 2.38423478e-15, 7.89891234e+04
                    , -4.11697000e+01] ),
            NASA9( [  6000.0, 20000.0], [ 9.52463679e+07, -8.58582691e+04
                    , 2.98044518e+01, -2.97956370e-03, 1.65633416e-07
                    , -4.74479184e-12, 5.57014829e-17, 6.96143427e+05
                    , -2.22902738e+02] )
                 ),
        note = "nasa9 polynomials (tinyurl.com/122wp6ee)")

species(name = "NH2",
        atoms = " N:1  H:2 ",
        thermo = (
            NASA9( [   200.0,  1000.0], [ -3.11597200e+04, 4.75067079e+02
                    , 1.37461624e+00, 6.29934245e-03, -5.97590379e-06
                    , 4.48228255e-09, -1.41040082e-12, 1.92910678e+04
                    , 1.53892309e+01] ),
            NASA9( [  1000.0,  6000.0], [ 1.66900755e+06, -5.61037947e+03
                    , 9.97187503e+00, -1.17827634e-03, 4.23394777e-07
                    , -6.53974068e-11, 3.61986035e-15, 5.68905776e+04
                    , -4.37935341e+01] )
                 ),
        note = "nasa9 polynomials (tinyurl.com/122wp6ee)")

species(name = "NH3",
        atoms = " N:1  H:3 ",
        thermo = (
            NASA9( [   200.0,  1000.0], [ -7.68122615e+04, 1.27095158e+03
                    , -3.89322913e+00, 2.14598842e-02, -2.18376670e-05
                    , 1.31738571e-08, -3.33232206e-12, -1.26488641e+04
                    , 4.36601494e+01] ),
            NASA9( [  1000.0,  6000.0], [ 2.45238954e+06, -8.04089424e+03
                    , 1.27134620e+01, -3.98018658e-04, 3.55250275e-08
                    , 2.53092357e-12, -3.32270053e-16, 4.38619196e+04
                    , -6.46233025e+01] )
                 ),
        note = "nasa9 polynomials (tinyurl.com/122wp6ee)")

species(name = "C2",
        atoms = " C:2 ",
        thermo = (
            NASA9( [   200.0,  1000.0], [ 5.55956757e+05, -9.98000622e+03
                    , 6.68153991e+01, -1.74341173e-01, 2.44849356e-04
                    , -1.70344706e-07, 4.68447130e-11, 1.44586386e+05
                    , -3.44818892e+02] ),
            NASA9( [  1000.0,  6000.0], [ -9.68890957e+05, 3.56099020e+03
                    , -5.06351169e-01, 2.94509281e-03, -7.13928908e-07
                    , 8.67047006e-11, -4.07681670e-15, 7.68186000e+04
                    , 3.33989606e+01] ),
            NASA9( [  6000.0, 20000.0], [ 6.31616742e+06, 1.36534413e+04
                    , -3.99672321e+00, 1.93752303e-03, -1.58441823e-07
                    , 5.52076555e-12, -7.25360969e-17, 9.39290526e+03
                    , 6.61412677e+01] )
                 ),
        note = "nasa9 polynomials (tinyurl.com/122wp6ee)")

species(name = "C2H",
        atoms = " C:2  H:1 ",
        thermo = (
            NASA9( [   200.0,  1000.0], [ 7.65369105e+03, -4.18740132e+02
                    , 7.25427188e+00, -5.03701933e-03, 8.23519623e-06
                    , -4.61676824e-09, 9.50926320e-13, 6.85068967e+04
                    , -1.58603558e+01] ),
            NASA9( [  1000.0,  6000.0], [ 3.99586409e+06, -1.19690929e+04
                    , 1.71383304e+01, -3.33695957e-03, 6.00328130e-07
                    , -5.49724012e-11, 2.02273188e-15, 1.43142317e+05
                    , -9.28592589e+01] )
                 ),
        note = "nasa9 polynomials (tinyurl.com/122wp6ee)")

species(name = "C2H2",
        atoms = " C:2  H:2 ",
        thermo = (
            NASA9( [   200.0,  1000.0], [ 1.59813325e+05, -2.21667505e+03
                    , 1.26572561e+01, -7.98017014e-03, 8.05580151e-06
                    , -2.43394461e-09, -7.50945461e-14, 3.71263379e+04
                    , -5.24444056e+01] ),
            NASA9( [  1000.0,  6000.0], [ 1.71379212e+06, -5.92897095e+03
                    , 1.23611564e+01, 1.31470625e-04, -1.36286904e-07
                    , 2.71274606e-11, -1.30208685e-15, 6.26648973e+04
                    , -5.81887293e+01] )
                 ),
        note = "nasa9 polynomials (tinyurl.com/122wp6ee)")

species(name = "C2H4",
        atoms = " C:2  H:4 ",
        thermo = (
            NASA9( [   200.0,  1000.0], [ -1.16361327e+05, 2.55486052e+03
                    , -1.60975030e+01, 6.62578637e-02, -7.88508639e-05
                    , 5.12522379e-08, -1.37033846e-11, -6.17623606e+03
                    , 1.09334030e+02] ),
            NASA9( [  1000.0,  6000.0], [ 3.40872512e+06, -1.37483642e+04
                    , 2.36588483e+01, -2.42372856e-03, 4.43116915e-07
                    , -4.35234840e-11, 1.77521829e-15, 8.82035634e+04
                    , -1.37126898e+02] )
                 ),